<?xml version="1.0" encoding="UTF-8"?>

<!-- generated on 2026-02-18T16:30:02.464836+05:30 by Eclipse SUMO netconvert 1.26.0
<netconvertConfiguration xmlns:xsi="http://www.w3.org/2001/XMLSchema-instance" xsi:noNamespaceSchemaLocation="http://sumo.dlr.de/xsd/netconvertConfiguration.xsd">

    <input>
        <node-files value="cross.nod.xml"/>
        <edge-files value="cross.edg.xml"/>
    </input>

    <output>
        <output-file value="cross.net.xml"/>
    </output>

</netconvertConfiguration>
-->

<net version="1.20" junctionCornerDetail="5" limitTurnSpeed="5.50" xmlns:xsi="http://www.w3.org/2001/XMLSchema-instance" xsi:noNamespaceSchemaLocation="http://sumo.dlr.de/xsd/net_file.xsd">

    <location netOffset="200.00,200.00" convBoundary="0.00,0.00,400.00,400.00" origBoundary="-200.00,-200.00,200.00,200.00" projParameter="!"/>

    <edge id=":center_0" function="internal">
        <lane id=":center_0_0" index="0" speed="6.51" length="9.03" shape="198.40,207.20 198.05,204.75 197.00,203.00 195.25,201.95 192.80,201.60"/>
    </edge>
    <edge id=":center_1" function="internal">
        <lane id=":center_1_0" index="0" speed="13.90" length="14.40" shape="198.40,207.20 198.40,192.80"/>
    </edge>
    <edge id=":center_2" function="internal">
        <lane id=":center_2_0" index="0" speed="8.00" length="4.07" shape="198.40,207.20 198.95,203.35 199.04,203.20"/>
    </edge>
    <edge id=":center_3" function="internal">
        <lane id=":center_3_0" index="0" speed="3.65" length="1.44" shape="198.40,207.20 199.20,206.00"/>
    </edge>
    <edge id=":center_16" function="internal">
        <lane id=":center_16_0" index="0" speed="8.00" length="10.13" shape="199.04,203.20 200.60,200.60 203.35,198.95 207.20,198.40"/>
    </edge>
    <edge id=":center_17" function="internal">
        <lane id=":center_17_0" index="0" speed="3.65" length="3.23" shape="199.20,206.00 200.00,205.60 200.80,206.00 201.60,207.20"/>
    </edge>
    <edge id=":center_4" function="internal">
        <lane id=":center_4_0" index="0" speed="6.51" length="9.03" shape="207.20,201.60 204.75,201.95 203.00,203.00 201.95,204.75 201.60,207.20"/>
    </edge>
    <edge id=":center_5" function="internal">
        <lane id=":center_5_0" index="0" speed="13.90" length="14.40" shape="207.20,201.60 192.80,201.60"/>
    </edge>
    <edge id=":center_6" function="internal">
        <lane id=":center_6_0" index="0" speed="8.00" length="4.07" shape="207.20,201.60 203.35,201.05 203.20,200.96"/>
    </edge>
    <edge id=":center_7" function="internal">
        <lane id=":center_7_0" index="0" speed="3.65" length="1.44" shape="207.20,201.60 206.00,200.80"/>
    </edge>
    <edge id=":center_18" function="internal">
        <lane id=":center_18_0" index="0" speed="8.00" length="10.13" shape="203.20,200.96 200.60,199.40 198.95,196.65 198.40,192.80"/>
    </edge>
    <edge id=":center_19" function="internal">
        <lane id=":center_19_0" index="0" speed="3.65" length="3.23" shape="206.00,200.80 205.60,200.00 206.00,199.20 207.20,198.40"/>
    </edge>
    <edge id=":center_8" function="internal">
        <lane id=":center_8_0" index="0" speed="6.51" length="9.03" shape="201.60,192.80 201.95,195.25 203.00,197.00 204.75,198.05 207.20,198.40"/>
    </edge>
    <edge id=":center_9" function="internal">
        <lane id=":center_9_0" index="0" speed="13.90" length="14.40" shape="201.60,192.80 201.60,207.20"/>
    </edge>
    <edge id=":center_10" function="internal">
        <lane id=":center_10_0" index="0" speed="8.00" length="4.07" shape="201.60,192.80 201.05,196.65 200.96,196.80"/>
    </edge>
    <edge id=":center_11" function="internal">
        <lane id=":center_11_0" index="0" speed="3.65" length="1.44" shape="201.60,192.80 200.80,194.00"/>
    </edge>
    <edge id=":center_20" function="internal">
        <lane id=":center_20_0" index="0" speed="8.00" length="10.13" shape="200.96,196.80 199.40,199.40 196.65,201.05 192.80,201.60"/>
    </edge>
    <edge id=":center_21" function="internal">
        <lane id=":center_21_0" index="0" speed="3.65" length="3.23" shape="200.80,194.00 200.00,194.40 199.20,194.00 198.40,192.80"/>
    </edge>
    <edge id=":center_12" function="internal">
        <lane id=":center_12_0" index="0" speed="6.51" length="9.03" shape="192.80,198.40 195.25,198.05 197.00,197.00 198.05,195.25 198.40,192.80"/>
    </edge>
    <edge id=":center_13" function="internal">
        <lane id=":center_13_0" index="0" speed="13.90" length="14.40" shape="192.80,198.40 207.20,198.40"/>
    </edge>
    <edge id=":center_14" function="internal">
        <lane id=":center_14_0" index="0" speed="8.00" length="4.07" shape="192.80,198.40 196.65,198.95 196.80,199.04"/>
    </edge>
    <edge id=":center_15" function="internal">
        <lane id=":center_15_0" index="0" speed="3.65" length="1.44" shape="192.80,198.40 194.00,199.20"/>
    </edge>
    <edge id=":center_22" function="internal">
        <lane id=":center_22_0" index="0" speed="8.00" length="10.13" shape="196.80,199.04 199.40,200.60 201.05,203.35 201.60,207.20"/>
    </edge>
    <edge id=":center_23" function="internal">
        <lane id=":center_23_0" index="0" speed="3.65" length="3.23" shape="194.00,199.20 194.40,200.00 194.00,200.80 192.80,201.60"/>
    </edge>
    <edge id=":east_0" function="internal">
        <lane id=":east_0_0" index="0" speed="3.65" length="4.67" shape="400.00,198.40 401.20,199.20 401.60,200.00 401.20,200.80 400.00,201.60"/>
    </edge>
    <edge id=":north_0" function="internal">
        <lane id=":north_0_0" index="0" speed="3.65" length="4.67" shape="201.60,400.00 200.80,401.20 200.00,401.60 199.20,401.20 198.40,400.00"/>
    </edge>
    <edge id=":south_0" function="internal">
        <lane id=":south_0_0" index="0" speed="3.65" length="4.67" shape="198.40,0.00 199.20,-1.20 200.00,-1.60 200.80,-1.20 201.60,0.00"/>
    </edge>
    <edge id=":west_0" function="internal">
        <lane id=":west_0_0" index="0" speed="3.65" length="4.67" shape="0.00,201.60 -1.20,200.80 -1.60,200.00 -1.20,199.20 0.00,198.40"/>
    </edge>

    <edge id="east_in" from="east" to="center" priority="-1">
        <lane id="east_in_0" index="0" speed="13.90" length="192.80" shape="400.00,201.60 207.20,201.60"/>
    </edge>
    <edge id="east_out" from="center" to="east" priority="-1">
        <lane id="east_out_0" index="0" speed="13.90" length="192.80" shape="207.20,198.40 400.00,198.40"/>
    </edge>
    <edge id="north_in" from="north" to="center" priority="-1">
        <lane id="north_in_0" index="0" speed="13.90" length="192.80" shape="198.40,400.00 198.40,207.20"/>
    </edge>
    <edge id="north_out" from="center" to="north" priority="-1">
        <lane id="north_out_0" index="0" speed="13.90" length="192.80" shape="201.60,207.20 201.60,400.00"/>
    </edge>
    <edge id="south_in" from="south" to="center" priority="-1">
        <lane id="south_in_0" index="0" speed="13.90" length="192.80" shape="201.60,0.00 201.60,192.80"/>
    </edge>
    <edge id="south_out" from="center" to="south" priority="-1">
        <lane id="south_out_0" index="0" speed="13.90" length="192.80" shape="198.40,192.80 198.40,0.00"/>
    </edge>
    <edge id="west_in" from="west" to="center" priority="-1">
        <lane id="west_in_0" index="0" speed="13.90" length="192.80" shape="0.00,198.40 192.80,198.40"/>
    </edge>
    <edge id="west_out" from="center" to="west" priority="-1">
        <lane id="west_out_0" index="0" speed="13.90" length="192.80" shape="192.80,201.60 0.00,201.60"/>
    </edge>

    <tlLogic id="center" type="static" programID="0" offset="0">
        <phase duration="42" state="GGggrrrrGGggrrrr"/>
        <phase duration="3"  state="yyyyrrrryyyyrrrr"/>
        <phase duration="42" state="rrrrGGggrrrrGGgg"/>
        <phase duration="3"  state="rrrryyyyrrrryyyy"/>
    </tlLogic>

    <junction id="center" type="traffic_light" x="200.00" y="200.00" incLanes="north_in_0 east_in_0 south_in_0 west_in_0" intLanes=":center_0_0 :center_1_0 :center_16_0 :center_17_0 :center_4_0 :center_5_0 :center_18_0 :center_19_0 :center_8_0 :center_9_0 :center_20_0 :center_21_0 :center_12_0 :center_13_0 :center_22_0 :center_23_0" shape="196.80,207.20 203.20,207.20 203.64,204.98 204.20,204.20 204.98,203.64 205.98,203.31 207.20,203.20 207.20,196.80 204.98,196.36 204.20,195.80 203.64,195.02 203.31,194.02 203.20,192.80 196.80,192.80 196.36,195.02 195.80,195.80 195.02,196.36 194.02,196.69 192.80,196.80 192.80,203.20 195.02,203.64 195.80,204.20 196.36,204.98 196.69,205.98">
        <request index="0"  response="0000000000000000" foes="1000010000100000" cont="0"/>
        <request index="1"  response="0100000001000000" foes="0111110001100000" cont="0"/>
        <request index="2"  response="0100011101000000" foes="0110011111100000" cont="1"/>
        <request index="3"  response="0100001000010000" foes="0100001000010000" cont="1"/>
        <request index="4"  response="0000001000000000" foes="0100001000001000" cont="0"/>
        <request index="5"  response="0000011000000111" foes="1100011000000111" cont="0"/>
        <request index="6"  response="0111011000000110" foes="0111111000000110" cont="1"/>
        <request index="7"  response="0010000100000100" foes="0010000100000100" cont="1"/>
        <request index="8"  response="0000000000000000" foes="0010000010000100" cont="0"/>
        <request index="9"  response="0100000001000000" foes="0110000001111100" cont="0"/>
        <request index="10" response="0100000001000011" foes="1110000001100111" cont="1"/>
        <request index="11" response="0001000001000010" foes="0001000001000010" cont="1"/>
        <request index="12" response="0000000000000010" foes="0000100001000010" cont="0"/>
        <request index="13" response="0000011100000110" foes="0000011111000110" cont="0"/>
        <request index="14" response="0000011000110110" foes="0000011001111110" cont="1"/>
        <request index="15" response="0000010000100001" foes="0000010000100001" cont="1"/>
    </junction>
    <junction id="east" type="priority" x="400.00" y="200.00" incLanes="east_out_0" intLanes=":east_0_0" shape="400.00,200.00 400.00,196.80 400.00,200.00">
        <request index="0" response="0" foes="0" cont="0"/>
    </junction>
    <junction id="north" type="priority" x="200.00" y="400.00" incLanes="north_out_0" intLanes=":north_0_0" shape="200.00,400.00 203.20,400.00 200.00,400.00">
        <request index="0" response="0" foes="0" cont="0"/>
    </junction>
    <junction id="south" type="priority" x="200.00" y="0.00" incLanes="south_out_0" intLanes=":south_0_0" shape="200.00,0.00 196.80,0.00 200.00,0.00">
        <request index="0" response="0" foes="0" cont="0"/>
    </junction>
    <junction id="west" type="priority" x="0.00" y="200.00" incLanes="west_out_0" intLanes=":west_0_0" shape="0.00,200.00 0.00,203.20 0.00,200.00">
        <request index="0" response="0" foes="0" cont="0"/>
    </junction>

    <junction id=":center_16_0" type="internal" x="199.04" y="203.20" incLanes=":center_2_0 south_in_0" intLanes=":center_5_0 :center_6_0 :center_7_0 :center_8_0 :center_9_0 :center_13_0 :center_14_0"/>
    <junction id=":center_17_0" type="internal" x="199.20" y="206.00" incLanes=":center_3_0 east_in_0 south_in_0 west_in_0" intLanes=":center_4_0 :center_9_0 :center_14_0"/>
    <junction id=":center_18_0" type="internal" x="203.20" y="200.96" incLanes=":center_6_0 west_in_0" intLanes=":center_1_0 :center_2_0 :center_9_0 :center_10_0 :center_11_0 :center_12_0 :center_13_0"/>
    <junction id=":center_19_0" type="internal" x="206.00" y="200.80" incLanes=":center_7_0 north_in_0 south_in_0 west_in_0" intLanes=":center_2_0 :center_8_0 :center_13_0"/>
    <junction id=":center_20_0" type="internal" x="200.96" y="196.80" incLanes=":center_10_0 north_in_0" intLanes=":center_0_0 :center_1_0 :center_5_0 :center_6_0 :center_13_0 :center_14_0 :center_15_0"/>
    <junction id=":center_21_0" type="internal" x="200.80" y="194.00" incLanes=":center_11_0 east_in_0 north_in_0 west_in_0" intLanes=":center_1_0 :center_6_0 :center_12_0"/>
    <junction id=":center_22_0" type="internal" x="196.80" y="199.04" incLanes=":center_14_0 east_in_0" intLanes=":center_1_0 :center_2_0 :center_3_0 :center_4_0 :center_5_0 :center_9_0 :center_10_0"/>
    <junction id=":center_23_0" type="internal" x="194.00" y="199.20" incLanes=":center_15_0 east_in_0 north_in_0 south_in_0" intLanes=":center_0_0 :center_5_0 :center_10_0"/>

    <connection from="east_in" to="north_out" fromLane="0" toLane="0" via=":center_4_0" tl="center" linkIndex="4" dir="r" state="o"/>
    <connection from="east_in" to="west_out" fromLane="0" toLane="0" via=":center_5_0" tl="center" linkIndex="5" dir="s" state="o"/>
    <connection from="east_in" to="south_out" fromLane="0" toLane="0" via=":center_6_0" tl="center" linkIndex="6" dir="l" state="o"/>
    <connection from="east_in" to="east_out" fromLane="0" toLane="0" via=":center_7_0" tl="center" linkIndex="7" dir="t" state="o"/>
    <connection from="east_out" to="east_in" fromLane="0" toLane="0" via=":east_0_0" dir="t" state="M"/>
    <connection from="north_in" to="west_out" fromLane="0" toLane="0" via=":center_0_0" tl="center" linkIndex="0" dir="r" state="O"/>
    <connection from="north_in" to="south_out" fromLane="0" toLane="0" via=":center_1_0" tl="center" linkIndex="1" dir="s" state="O"/>
    <connection from="north_in" to="east_out" fromLane="0" toLane="0" via=":center_2_0" tl="center" linkIndex="2" dir="l" state="o"/>
    <connection from="north_in" to="north_out" fromLane="0" toLane="0" via=":center_3_0" tl="center" linkIndex="3" dir="t" state="o"/>
    <connection from="north_out" to="north_in" fromLane="0" toLane="0" via=":north_0_0" dir="t" state="M"/>
    <connection from="south_in" to="east_out" fromLane="0" toLane="0" via=":center_8_0" tl="center" linkIndex="8" dir="r" state="O"/>
    <connection from="south_in" to="north_out" fromLane="0" toLane="0" via=":center_9_0" tl="center" linkIndex="9" dir="s" state="O"/>
    <connection from="south_in" to="west_out" fromLane="0" toLane="0" via=":center_10_0" tl="center" linkIndex="10" dir="l" state="o"/>
    <connection from="south_in" to="south_out" fromLane="0" toLane="0" via=":center_11_0" tl="center" linkIndex="11" dir="t" state="o"/>
    <connection from="south_out" to="south_in" fromLane="0" toLane="0" via=":south_0_0" dir="t" state="M"/>
    <connection from="west_in" to="south_out" fromLane="0" toLane="0" via=":center_12_0" tl="center" linkIndex="12" dir="r" state="o"/>
    <connection from="west_in" to="east_out" fromLane="0" toLane="0" via=":center_13_0" tl="center" linkIndex="13" dir="s" state="o"/>
    <connection from="west_in" to="north_out" fromLane="0" toLane="0" via=":center_14_0" tl="center" linkIndex="14" dir="l" state="o"/>
    <connection from="west_in" to="west_out" fromLane="0" toLane="0" via=":center_15_0" tl="center" linkIndex="15" dir="t" state="o"/>
    <connection from="west_out" to="west_in" fromLane="0" toLane="0" via=":west_0_0" dir="t" state="M"/>

    <connection from=":center_0" to="west_out" fromLane="0" toLane="0" dir="r" state="M"/>
    <connection from=":center_1" to="south_out" fromLane="0" toLane="0" dir="s" state="M"/>
    <connection from=":center_2" to="east_out" fromLane="0" toLane="0" via=":center_16_0" dir="l" state="m"/>
    <connection from=":center_16" to="east_out" fromLane="0" toLane="0" dir="l" state="M"/>
    <connection from=":center_3" to="north_out" fromLane="0" toLane="0" via=":center_17_0" dir="t" state="m"/>
    <connection from=":center_17" to="north_out" fromLane="0" toLane="0" dir="t" state="M"/>
    <connection from=":center_4" to="north_out" fromLane="0" toLane="0" dir="r" state="M"/>
    <connection from=":center_5" to="west_out" fromLane="0" toLane="0" dir="s" state="M"/>
    <connection from=":center_6" to="south_out" fromLane="0" toLane="0" via=":center_18_0" dir="l" state="m"/>
    <connection from=":center_18" to="south_out" fromLane="0" toLane="0" dir="l" state="M"/>
    <connection from=":center_7" to="east_out" fromLane="0" toLane="0" via=":center_19_0" dir="t" state="m"/>
    <connection from=":center_19" to="east_out" fromLane="0" toLane="0" dir="t" state="M"/>
    <connection from=":center_8" to="east_out" fromLane="0" toLane="0" dir="r" state="M"/>
    <connection from=":center_9" to="north_out" fromLane="0" toLane="0" dir="s" state="M"/>
    <connection from=":center_10" to="west_out" fromLane="0" toLane="0" via=":center_20_0" dir="l" state="m"/>
    <connection from=":center_20" to="west_out" fromLane="0" toLane="0" dir="l" state="M"/>
    <connection from=":center_11" to="south_out" fromLane="0" toLane="0" via=":center_21_0" dir="t" state="m"/>
    <connection from=":center_21" to="south_out" fromLane="0" toLane="0" dir="t" state="M"/>
    <connection from=":center_12" to="south_out" fromLane="0" toLane="0" dir="r" state="M"/>
    <connection from=":center_13" to="east_out" fromLane="0" toLane="0" dir="s" state="M"/>
    <connection from=":center_14" to="north_out" fromLane="0" toLane="0" via=":center_22_0" dir="l" state="m"/>
    <connection from=":center_22" to="north_out" fromLane="0" toLane="0" dir="l" state="M"/>
    <connection from=":center_15" to="west_out" fromLane="0" toLane="0" via=":center_23_0" dir="t" state="m"/>
    <connection from=":center_23" to="west_out" fromLane="0" toLane="0" dir="t" state="M"/>
    <connection from=":east_0" to="east_in" fromLane="0" toLane="0" dir="t" state="M"/>
    <connection from=":north_0" to="north_in" fromLane="0" toLane="0" dir="t" state="M"/>
    <connection from=":south_0" to="south_in" fromLane="0" toLane="0" dir="t" state="M"/>
    <connection from=":west_0" to="west_in" fromLane="0" toLane="0" dir="t" state="M"/>

</net>
